LAMMPS (7 Feb 2024 - Update 1)
# LAMMPS input script for silicon substrate simulation (Final Version)
# ----------------------------------------------------

# STEP 1: Initialization
units           metal
boundary        p p p
atom_style      atomic

# STEP 2: System Definition
lattice         diamond 5.431
Lattice spacing in x,y,z = 5.431 5.431 5.431
region          box block 0 10 0 10 0 6
create_box      1 box
Created orthogonal box = (0 0 0) to (54.31 54.31 32.586)
create_atoms    1 box
Created 4800 atoms

# STEP 3: Force Field and Minimization
pair_style      sw
pair_coeff      * * Si.sw Si
mass            1 28.0855
minimize        1.0e-5 1.0e-7 1000 10000
Step          Temp          E_pair         E_mol          TotEng         Press
0   0             -20818.56       0             -20818.56      -28.13924
Loop time of 0.00807653 on 4 procs for 1 steps with 4800 atoms

Minimization stats:
  Stopping criterion = energy tolerance
  Energy initial, next-to-last, final =
  Force two-norm initial, final = 3.95461e-12 3.935583e-12
  Force max component initial, final = 7.1726544e-14 7.3105584e-14
  Final line search alpha, max atom move = 1 7.3105584e-14
  Iterations, force evaluations = 1 2

# STEP 4: Equilibration (Gradual Heating)
# ---------------------------------------
timestep        0.0001
velocity        all create 10.0 12345
fix             1 all nvt temp 10.0 300.0 0.01  # <-- ★ tdampを修正
run             5000                           # <-- ★ 加熱時間を延長
Step          Temp          E_pair         E_mol          TotEng         Press
1   10            -20818.56       0             -20812.357      40.796402
Loop time of 11.0024 on 4 procs for 5000 steps with 4800 atoms

unfix           1

# STEP 5: Production Run
# ----------------------
timestep        0.001
fix             1 all nve
thermo          500
thermo_style    custom step temp pe etotal press
dump            1 all atom 1000 dump.atom
run             10000
Step          Temp          PotEng         TotEng         Press
5001   292.29254     -20622.158     -20440.844      3417.1608
Averages over the last 11 of 22 rows, steps 10500 to 15001:
Temp PotEng TotEng Press
302.414 -20628.4 -20440.9 3519.63
Loop time of 27.6075 on 4 procs for 10000 steps with 4800 atoms

# End of Script
