LAMMPS (7 Feb 2024 - Update 1)
############################################################
# Mini: N implantation into (undoped) diamond - short run  #
# Target: <~ 50k steps, small cell, few ions               #
############################################################

# ---------- 0. Parameters (small & fast) ----------
variable        a            equal 3.57
variable        nx           equal 12
variable        ny           equal 12
variable        nz           equal 12

variable        dt           equal 0.001        # 1 fs
variable        seed         equal 24680

variable        energy_eV    equal 1000.0       # lower to speed (1.0 keV)
variable        n_ions       equal 5            # only a few ions

# schedule (short)
variable        nrelax1      equal 2000         # 2 ps
variable        nimplant     equal 10000        # 10 ps
variable        nrelax2      equal 2000         # 2 ps
variable        nramp        equal 5000         # 5 ps
variable        nanneal      equal 10000        # 10 ps
variable        ncool        equal 5000         # 5 ps
variable        nfinal       equal 5000         # 5 ps

# ---------- 1. Initialization ----------
units           metal
dimension       3
boundary        p p f
atom_style      atomic

## thermo outputs are defined after the box is created

# ---------- 2. Create substrate (pure C) ----------
lattice         diamond 3.57
Lattice spacing in x,y,z = 3.57 3.57 3.57
region          box block 0 12 0 12 0 12 units lattice
create_box      2 box                       # type 1=C, type 2=N
Created orthogonal box = (0 0 0) to (42.84 42.84 42.84)
create_atoms    1 box
Created 13824 atoms

mass            1 12.011
mass            2 14.007

thermo          500
thermo_style    custom step atoms temp pe ke etotal press
thermo_modify   lost ignore

region          thermostat_layer block INF INF INF INF 0 2 units lattice
variable        z_mobile_hi  equal 12-2
region          newton_layer     block INF INF INF INF 2 10 units lattice
group           thermostat_atoms region thermostat_layer
2592 atoms in group thermostat_atoms
group           newton_atoms     region newton_layer
9504 atoms in group newton_atoms
group           simulation_atoms union newton_atoms thermostat_atoms
11808 atoms in group simulation_atoms

# fix bottom layer to prevent drift and atom loss
velocity        thermostat_atoms set 0.0 0.0 0.0
fix             fFIX thermostat_atoms setforce 0.0 0.0 0.0

variable        zmax        equal 12
variable        inj_lo      equal 12-0.5
variable        inj_hi      equal 12-0.1
region          inject      block INF INF INF INF 11.5 11.9 units lattice

# ---------- 3. Potential ----------
pair_style      tersoff/zbl
pair_coeff      * * BNC_tersoff_zbl.potential C N
Reading tersoff/zbl potential file BNC_tersoff_zbl.potential with DATE: 2013-03-21
neighbor        2.0 bin
neigh_modify    delay 10 check yes

# ---------- 4. Initial relaxation @293K ----------
timestep        0.001
velocity        newton_atoms create 293.0 13579 mom yes rot yes
fix             fNVT newton_atoms nvt temp 293.0 293.0 0.1
fix             fLAN thermostat_atoms langevin 293.0 293.0 0.1 98765
run             2000
Step        Atoms         Temp          PotEng         KinEng         TotEng         Press
0       13824   201.43088     -26946.24       359.90923     -26586.331      1404672.7
Loop time of 42.6573 on 4 procs for 2000 steps with 13824 atoms

unfix           fNVT
unfix           fLAN

dump            dtraj all custom 1000 mini_traj.dump id type x y z
dump_modify     dtraj sort id

# ---------- 5. Ion implantation (few ions) ----------
## Redefine insertion region after initial relaxation using current box size
variable        xlo_cur     equal xlo
variable        xhi_cur     equal xhi
variable        ylo_cur     equal ylo
variable        yhi_cur     equal yhi
variable        zlo_cur     equal zlo
variable        zhi_cur     equal zhi
variable        inj_hi_box  equal 42.84-5.0
variable        inj_lo_box  equal 42.84-10.0
# shrink x/y bounds slightly inside the box to avoid edge-equality issues
variable        eps         equal 0.01
variable        xlo_in      equal 0+0.01
variable        xhi_in      equal 42.84-0.01
variable        ylo_in      equal 0+0.01
variable        yhi_in      equal 42.84-0.01
region          inject_box  block 0.01 42.83 0.01 42.83 32.84 37.84 units box side in

variable        energy_J     equal 1000*1.60218e-19
variable        mass_kg      equal 14.007*1.66054e-27
variable        v_mps        equal sqrt(2*1.60218e-16/2.325918378e-26)
variable        v_Aps        equal 117374.408257012/1.0e10

compute_modify  thermo_temp dynamic/dof yes
## OVITO: high-cadence dump during implantation (includes velocities)
dump            dimpl all custom 100 mini_implant.dump id type x y z vx vy vz
dump_modify     dimpl sort id

## Integrate during implantation: NVE on mobile atoms, Langevin on bottom
fix             fNVE    newton_atoms nve
fix             fLAN_imp thermostat_atoms langevin 293.0 293.0 0.1 224466

fix             implant all deposit 5 2 100 24680 region inject_box near 1.0 attempt 20 vz -1.17374408257012e-05 -1.17374408257012e-05
run             10000
Step        Atoms         Temp          PotEng         KinEng         TotEng         Press
2000       13824   487.56279     -21454.156      871.15915     -20582.997      1444578.1
Averages over the last 11 of 21 rows, steps 7000 to 12000:
Atoms Temp PotEng KinEng TotEng Press
13771.7 8546.53 -9417.16 15210.6 5793.48 2.13834e+06
Loop time of 304.242 on 4 procs for 10000 steps with 13758 atoms

variable        ndeposit equal f_implant
Deposited ions during implant: 0
unfix           implant
unfix           fLAN_imp
unfix           fNVE
undump          dimpl

# post-implant short relax
fix             fNVT newton_atoms nvt temp 293.0 293.0 0.1
fix             fLAN thermostat_atoms langevin 293.0 293.0 0.1 98765
run             2000
Step        Atoms         Temp          PotEng         KinEng         TotEng         Press
12000       13758   11191.489     -6377.1512      19901.062      13523.911      2303344.5
Loop time of 44.8251 on 4 procs for 2000 steps with 13754 atoms

unfix           fNVT
unfix           fLAN

# ---------- 6. Short anneal & cool ----------
fix             fNVT newton_atoms nvt temp 293.0 1600.0 0.5
fix             fLAN thermostat_atoms langevin 293.0 1600.0 0.5 13579
run             5000
Step        Atoms         Temp          PotEng         KinEng         TotEng         Press
14000       13753   503.36213     -26742.805      894.76922     -25848.036      1447627.9
Averages over the last 6 of 11 rows, steps 16500 to 19000:
Atoms Temp PotEng KinEng TotEng Press
13699.7 3087.05 -23656.2 5466 -18190.2 1.6774e+06
Loop time of 128.007 on 4 procs for 5000 steps with 13684 atoms

unfix           fNVT
unfix           fLAN

fix             fNVT newton_atoms nvt temp 1600.0 1600.0 0.1
fix             fLAN thermostat_atoms langevin 1600.0 1600.0 0.1 24680
run             10000
Step        Atoms         Temp          PotEng         KinEng         TotEng         Press
19000       13683   3286.9006     -23920.391      5813.0062     -18107.385      1669720.1
Averages over the last 11 of 21 rows, steps 24000 to 29000:
Atoms Temp PotEng KinEng TotEng Press
13652.8 1881.33 -30220.7 3319.9 -26900.8 1.57366e+06
Loop time of 215.128 on 4 procs for 10000 steps with 13644 atoms

unfix           fNVT
unfix           fLAN

fix             fNVT newton_atoms nvt temp 1600.0 293.0 0.5
fix             fLAN thermostat_atoms langevin 1600.0 293.0 0.5 11223
run             5000
Step        Atoms         Temp          PotEng         KinEng         TotEng         Press
29000       13644   1813.1702     -30122.65       3197.5187     -26925.131      1574015.1
Averages over the last 6 of 11 rows, steps 31500 to 34000:
Atoms Temp PotEng KinEng TotEng Press
13619.5 2650.42 -27037.8 4665.77 -22372.1 1.588e+06
Loop time of 125.974 on 4 procs for 5000 steps with 13615 atoms

unfix           fNVT
unfix           fLAN

fix             fNVT newton_atoms nvt temp 293.0 293.0 0.1
fix             fLAN thermostat_atoms langevin 293.0 293.0 0.1 33445
run             5000
Step        Atoms         Temp          PotEng         KinEng         TotEng         Press
34000       13615   2257.9386     -29844.446      3973.402      -25871.044      1556584.8
Averages over the last 6 of 11 rows, steps 36500 to 39000:
Atoms Temp PotEng KinEng TotEng Press
13612 570.203 -34057.5 1003.19 -33054.3 1.29026e+06
Loop time of 95.8823 on 4 procs for 5000 steps with 13612 atoms

unfix           fNVT
unfix           fLAN

print           "Mini simulation finished."
Mini simulation finished.
