LAMMPS (7 Feb 2024 - Update 1)
# LAMMPS input script for Nitrogen irradiation on a Graphene sheet
# 【新提案】グラフェンシートへのNイオン照射シミュレーション

# ----------------- 1. 初期設定 -----------------
units           metal
dimension       3
boundary        p p f
atom_style      atomic
atom_modify     map array

# ----------------- 2. グラフェンシートの作成 -----------------
# グラフェン用の格子を設定
lattice         hcp 1.42
Lattice spacing in x,y,z = 1.42 2.4595121 2.3188503
region          sim_box block -15 15 -15 15 -1 1 units box
create_box      2 sim_box
Created orthogonal box = (-15 -15 -1) to (15 15 1)

# create_atomsでグラフェンシートを作成
create_atoms    1 single 0 0 0 basis 1 1 basis 2 2
Created 1 atoms
replicate       20 20 1
Replication is creating a 20x20x1 = 400 times larger system...
  orthogonal box = (-15 -15 -1) to (585 585 1)
  400 atoms
  replicate CPU = 0.001 seconds

group           graphene type 1
400 atoms in group graphene

# ----------------- 3. ポテンシャルと質量の設定 -----------------
pair_style      tersoff
pair_coeff      * * BNC.tersoff C N
Reading tersoff potential file BNC.tersoff with DATE: 2013-03-21
mass            1 12.011
mass            2 14.007

# ----------------- 4. 平衡化 (NVT) -----------------
# グラフェンは元々安定なため、最小化や圧力緩和は不要
reset_timestep  0
timestep        0.0005
fix             1 graphene nvt temp 300.0 300.0 0.1
thermo          1000
thermo_style    custom step temp pe ke etotal press
run             10000
Step          Temp          PotEng         KinEng         TotEng         Press
0   0              0              0              0              0
Averages over the last 6 of 11 rows, steps 5000 to 10000:
Temp PotEng KinEng TotEng Press
0 0 0 0 0
Loop time of 0.127825 on 1 procs for 10000 steps with 400 atoms

unfix           1

# ----------------- 5. 窒素イオン照射 -----------------
reset_timestep  0
fix             1 graphene nvt temp 300.0 300.0 0.1
fix             2 all implant 1 2 20 12345 100.0 zhi 5.0
ERROR: Unrecognized fix style 'implant' (src/modify.cpp:917)
Last command: fix             2 all implant 1 2 20 12345 100.0 zhi 5.0
