LAMMPS (7 Feb 2024 - Update 1)
# LAMMPS input script for Ar deposition on Si substrate (Final Corrected Version)
# ----------------------------------------------------

# STEP 1: Initialization
# ----------------------
units           metal
boundary        p p f
atom_style      atomic

# STEP 2: System Definition
# -------------------------
lattice         diamond 5.431
Lattice spacing in x,y,z = 5.431 5.431 5.431
region          si_region block 0 10 0 10 0 15
create_box      2 si_region
Created orthogonal box = (0 0 0) to (54.31 54.31 81.465)
create_atoms    1 region si_region
Created 12000 atoms

mass            1 28.0855  # Mass for Si (type 1)
mass            2 39.948   # Mass for Ar (type 2)

# STEP 3: Force Field (Hybrid Potential)
# ------------------------------------
pair_style      hybrid/overlay sw lj/cut 10.0
pair_coeff      * * sw Si.sw Si Ar
pair_coeff      2 2 lj/cut 0.0103 3.405
pair_coeff      1 2 lj/cut 0.0045 2.72

# STEP 4: Grouping and Initial Settings
# -------------------------------------
region          bottom_layer block INF INF INF INF 0 2
group           si_atoms type 1
12000 atoms in group si_atoms
group           bottom_fix region bottom_layer
1800 atoms in group bottom_fix
group           thermo_atoms subtract si_atoms bottom_fix
10200 atoms in group thermo_atoms

minimize        1.0e-5 1.0e-7 1000 10000
Step          Temp          E_pair         E_mol          TotEng         Press
0   0             -51178.96       0             -51178.96      -27.670253
Loop time of 0.00833989 on 4 procs for 1 steps with 12000 atoms

Minimization stats:
  Stopping criterion = energy tolerance
  Energy initial, next-to-last, final =
  Force two-norm initial, final = 0.0051803799 0.0050266481
  Force max component initial, final = 0.000259019 0.00025121234
  Final line search alpha, max atom move = 1 0.00025121234
  Iterations, force evaluations = 1 2

velocity        thermo_atoms create 300.0 12345

# STEP 5: Equilibration of Substrate
# ----------------------------------
fix             1 thermo_atoms nvt temp 300.0 300.0 0.1
fix             2 bottom_fix setforce 0.0 0.0 0.0
timestep        0.001
thermo          1000
thermo_style    custom step temp pe etotal press
run             5000
Step          Temp          PotEng         TotEng         Press
1   254.99625     -51178.96      -50783.463      1731.0672
Loop time of 28.4108 on 4 procs for 5000 steps with 12000 atoms

unfix           1

# STEP 6: Ar Atom Deposition
# --------------------------
# Redefine thermostat group to include incoming Ar atoms
group           mobile subtract all bottom_fix
10200 atoms in group mobile
# より強力なLangevinサーモスタットに変更
fix             3 mobile langevin 300.0 300.0 0.1 587283

# Create Ar atoms and run deposition
region          ar_source block 2 8 2 8 10 12
fix             ar_deposit all deposit 100 2 100 54321 region ar_source vz -0.1 -0.1

dump            1 all atom 100 dump.si_ar.atom
run             20000
Step          Temp          PotEng         TotEng         Press
5001   253.17683     -50929.602     -50536.927     -478.67334
Averages over the last 11 of 22 rows, steps 16000 to 25001:
Temp PotEng TotEng Press
253.216 8.39073e+07 8.39077e+07 2.23928e+09
Loop time of 140.849 on 4 procs for 20000 steps with 12100 atoms

# ----------------------------------------------------
# End of Script
